
# opt hf/6-31g* iop(6/33=2,6/42=6) pop=mk scf=tight test popt

Molecule Name

0 1
 C              
 C                  1            B1
 C                  2            B2    1            A1
 C                  3            B3    2            A2    1            D1    0
 C                  4            B4    3            A3    2            D2    0
 C                  1            B5    2            A4    3            D3    0
 H                  1            B6    6            A5    5            D4    0
 H                  4            B7    3            A6    2            D5    0
 H                  5            B8    4            A7    3            D6    0
 H                  6            B9    1            A8    2            D7    0
 N                  2           B10    1            A9    6            D8    0
 H                 11           B11    2           A10    1            D9    0
 H                 11           B12    2           A11    1           D10    0
 C                  3           B13    2           A12    1           D11    0
 C                 14           B14    3           A13    2           D12    0
 H                 15           B15   14           A14    3           D13    0
 H                 15           B16   14           A15    3           D14    0
 C                 15           B17   14           A16    3           D15    0
 H                 18           B18   15           A17   14           D16    0
 C                 18           B19   15           A18   14           D17    0
 N                 18           B20   15           A19   14           D18    0
 H                 21           B21   18           A20   15           D19    0
 O                 20           B22   18           A21   15           D20    0
 O                 14           B23    3           A22    2           D21    0
 C                 20           B24   18           A23   15           D22    0
 C                 21           B25   18           A24   15           D23    0
 O                 25           B26   20           A25   18           D24    0
 C                 25           B27   20           A26   18           D25    0
 H                 28           B28   25           A27   20           D26    0
 H                 28           B29   25           A28   20           D27    0
 H                 28           B30   25           A29   20           D28    0
 C                 26           B31   21           A30   18           D29    0
 H                 32           B32   26           A31   21           D30    0
 H                 32           B33   26           A32   21           D31    0
 H                 32           B34   26           A33   21           D32    0
 O                 26           B35   21           A34   18           D33    0
 N                 25           B36   20           A35   18           D34    0
 H                 37           B37   25           A36   20           D35    0

   B1             1.41066849
   B2             1.41641734
   B3             1.40699639
   B4             1.37141524
   B5             1.36950821
   B6             1.07103899
   B7             1.06880977
   B8             1.06891577
   B9             1.07109835
   B10            1.35962325
   B11            0.98710475
   B12            0.98822086
   B13            1.46813081
   B14            1.51489537
   B15            1.08200271
   B16            1.08024083
   B17            1.52419057
   B18            1.07536906
   B19            1.51389642
   B20            1.45376371
   B21            0.99011832
   B22            1.19601056
   B23            1.23110523
   B24            2.44861645
   B25            1.35925679
   B26            1.20386535
   B27            1.48220008
   B28            1.07563001
   B29            1.07852363
   B30            1.08043449
   B31            1.49883698
   B32            1.07592620
   B33            1.08024833
   B34            1.08243653
   B35            1.22652756
   B36            1.36935289
   B37            1.00000000
   A1           118.29245292
   A2           118.39710365
   A3           122.55609486
   A4           121.42029597
   A5           120.17436571
   A6           119.30540910
   A7           120.68205686
   A8           119.36385260
   A9           118.59049403
   A10          119.87368131
   A11          120.34094049
   A12          121.08325506
   A13          119.56943822
   A14          108.53899403
   A15          110.73914335
   A16          112.52941940
   A17          110.82385565
   A18          110.63209458
   A19          111.09101765
   A20          117.72746126
   A21          126.23927568
   A22          121.93766879
   A23          113.06141297
   A24          123.55697235
   A25           94.11485305
   A26          138.39169026
   A27          109.65026711
   A28          110.25357212
   A29          108.40076578
   A30          115.82127137
   A31          108.99853105
   A32          111.91825648
   A33          109.15637757
   A34          121.78575024
   A35           27.32348368
   A36           94.65167509
   D1             0.85151163
   D2            -0.49648860
   D3            -0.64328298
   D4           179.72975585
   D5           179.12728996
   D6           179.81821056
   D7          -179.80788417
   D8           179.58254688
   D9            -0.14252118
   D10         -177.91777946
   D11         -179.78803075
   D12          177.74104261
   D13           69.48975558
   D14          -46.23351457
   D15         -169.38163262
   D16          -46.25129368
   D17         -166.23032106
   D18           72.76525071
   D19           39.17214304
   D20          -13.18085361
   D21           -3.36793863
   D22         -166.92853810
   D23         -143.73966823
   D24           85.59938933
   D25          -91.59927508
   D26         -174.36040617
   D27          -52.63303389
   D28           65.69994514
   D29          178.17173417
   D30         -161.78683557
   D31          -40.57215956
   D32           79.65672785
   D33           -4.20095227
   D34          -95.62363111
   D35         -127.38405842

 1 2 1.5 6 2.0 7 1.0
 2 3 1.5 11 1.5
 3 4 1.5 14 1.0
 4 5 2.0 8 1.0
 5 6 1.5 9 1.0
 6 10 1.0
 7
 8
 9
 10
 11 12 1.0 13 1.0
 12
 13
 14 15 1.0 24 2.0
 15 16 1.0 17 1.0 18 1.0
 16
 17
 18 19 1.0 20 1.0 21 1.0
 19
 20 23 2.0 37 1.0
 21 22 1.0 26 1.5
 22
 23
 24
 25 27 2.0 28 1.0 37 1.0
 26 32 1.0 36 2.0
 27
 28 29 1.0 30 1.0 31 1.0
 29
 30
 31
 32 33 1.0 34 1.0 35 1.0
 33
 34
 35
 36
 37 38 1.0
 38

