%chk=d-kynurenine_r_resp_cap_1_1.chk
# opt hf/6-311g geom=connectivity iop(6/33=2,6/42=6) pop=mk scf=tight test

Molecule Name

0 1
 C              
 C                  1            B1
 C                  2            B2    1            A1
 C                  3            B3    2            A2    1            D1    0
 C                  4            B4    3            A3    2            D2    0
 C                  1            B5    2            A4    3            D3    0
 H                  1            B6    6            A5    5            D4    0
 H                  4            B7    3            A6    2            D5    0
 H                  5            B8    4            A7    3            D6    0
 H                  6            B9    1            A8    2            D7    0
 N                  2           B10    1            A9    6            D8    0
 H                 11           B11    2           A10    1            D9    0
 H                 11           B12    2           A11    1           D10    0
 C                  3           B13    2           A12    1           D11    0
 C                 14           B14    3           A13    2           D12    0
 H                 15           B15   14           A14    3           D13    0
 H                 15           B16   14           A15    3           D14    0
 C                 15           B17   14           A16    3           D15    0
 H                 18           B18   15           A17   14           D16    0
 C                 18           B19   15           A18   14           D17    0
 N                 18           B20   15           A19   14           D18    0
 H                 21           B21   18           A20   15           D19    0
 O                 20           B22   18           A21   15           D20    0
 O                 20           B23   18           A22   15           D21    0
 O                 14           B24    3           A23    2           D22    0
 C                 23           B25   20           A24   18           D23    0
 H                 26           B26   23           A25   20           D24    0
 H                 26           B27   23           A26   20           D25    0
 H                 26           B28   23           A27   20           D26    0
 C                 21           B29   18           A28   15           D27    0
 H                 30           B30   21           A29   18           D28    0
 H                 30           B31   21           A30   18           D29    0
 H                 30           B32   21           A31   18           D30    0

   B1             1.40977194
   B2             1.41652970
   B3             1.40522736
   B4             1.37300186
   B5             1.37046302
   B6             1.07123643
   B7             1.06831920
   B8             1.06909898
   B9             1.07128077
   B10            1.36069523
   B11            0.98691776
   B12            0.98816345
   B13            1.47125660
   B14            1.51410191
   B15            1.08371289
   B16            1.07729998
   B17            1.52372263
   B18            1.07529521
   B19            1.51194689
   B20            1.45558006
   B21            0.99504785
   B22            1.34181085
   B23            1.21379734
   B24            1.23267960
   B25            1.44322346
   B26            1.07683979
   B27            1.07308644
   B28            1.07708893
   B29            1.45442340
   B30            1.08046318
   B31            1.08468631
   B32            1.07989988
   A1           118.38549001
   A2           118.28558618
   A3           122.63362788
   A4           121.41984335
   A5           120.16154862
   A6           119.19524360
   A7           120.64933475
   A8           119.37211941
   A9           118.56526669
   A10          119.90892158
   A11          120.07485776
   A12          121.19036047
   A13          120.03104965
   A14          108.09540651
   A15          111.16016142
   A16          111.41176691
   A17          109.42484029
   A18          110.87188137
   A19          110.17446055
   A20          114.40700934
   A21          112.24274915
   A22          125.74293715
   A23          121.38093164
   A24          119.66979628
   A25          110.14111391
   A26          105.24266326
   A27          110.22113298
   A28          119.43002687
   A29          108.77877126
   A30          113.91883974
   A31          109.10786585
   D1             1.04073729
   D2            -0.47798144
   D3            -0.86440355
   D4           179.69990732
   D5           179.06795082
   D6           179.76190609
   D7          -179.75899577
   D8           179.37868231
   D9             0.91693102
   D10         -177.76655788
   D11         -179.72072531
   D12          176.44168454
   D13           78.46073105
   D14          -38.14756888
   D15         -159.73569192
   D16          -44.28827670
   D17         -162.92793136
   D18           73.72739949
   D19           71.49462856
   D20          163.54390967
   D21          -18.65519011
   D22           -5.82976928
   D23          177.11568346
   D24           59.99366946
   D25          179.50412267
   D26          -60.94448256
   D27         -146.29025727
   D28          172.65526209
   D29          -66.00718370
   D30           55.43712782

 1 2 1.5 6 2.0 7 1.0
 2 3 1.5 11 1.5
 3 4 1.5 14 1.0
 4 5 2.0 8 1.0
 5 6 1.5 9 1.0
 6 10 1.0
 7
 8
 9
 10
 11 12 1.0 13 1.0
 12
 13
 14 15 1.0 25 2.0
 15 16 1.0 17 1.0 18 1.0
 16
 17
 18 19 1.0 20 1.0 21 1.0
 19
 20 23 1.0 24 2.0
 21 22 1.0 30 1.0
 22
 23 26 1.0
 24
 25
 26 27 1.0 28 1.0 29 1.0
 27
 28
 29
 30 31 1.0 32 1.0 33 1.0
 31
 32
 33

