%chk=g_60.chk
# opt freq hf/6-31+g geom=connectivity

Title Card Required

0 1
 O                                                 
 C                                                     1            B1
 C                                                     2            B2    1            A1
 O                                                     3            B3    2            A2    1            D1    0
 C                                                     1            B4    2            A3    3            D2    0
 C                                                     4            B5    3            A4    2            D3    0
 H                                                     2            B6    1            A5    5            D4    0
 H                                                     2            B7    1            A6    5            D5    0
 H                                                     3            B8    2            A7    1            D6    0
 H                                                     3            B9    2            A8    1            D7    0
 H                                                     5           B10    1            A9    2            D8    0
 H                                                     5           B11    1           A10    2            D9    0
 H                                                     5           B12    1           A11    2           D10    0
 H                                                     6           B13    4           A12    3           D11    0
 H                                                     6           B14    4           A13    3           D12    0
 H                                                     6           B15    4           A14    3           D13    0

   B1             1.41143402
   B2             1.53233710
   B3             1.41160653
   B4             1.40869585
   B5             1.40867100
   B6             1.07000000
   B7             1.07000000
   B8             1.07000000
   B9             1.07000000
   B10            1.07000000
   B11            1.07000000
   B12            1.07000000
   B13            1.07000000
   B14            1.07000000
   B15            1.07000000
   A1           107.95185364
   A2           107.94460116
   A3           112.99576204
   A4           113.03328994
   A5           107.10133270
   A6           107.10133270
   A7           107.10286691
   A8           107.10286691
   A9           109.47122063
   A10          109.47122063
   A11          109.47122063
   A12          109.47122063
   A13          109.47122063
   A14          109.47122063
   D1            59.99837393
   D2           180.00000000
   D3          -179.98192439
   D4           -64.97008046
   D5            64.97008046
   D6           175.02728252
   D7           -55.03053465
   D8            -0.00000000
   D9           120.00000000
   D10         -120.00000000
   D11          180.00000000
   D12          -60.00000000
   D13           60.00000000

 1 2 1.0 5 1.0
 2 3 1.0 7 1.0 8 1.0
 3 4 1.0 9 1.0 10 1.0
 4 6 1.0
 5 11 1.0 12 1.0 13 1.0
 6 14 1.0 15 1.0 16 1.0
 7
 8
 9
 10
 11
 12
 13
 14
 15
 16


